  
       XFOIL         Version 6.99
  
 Calculated polar for:                                                 
  
 1 1 Reynolds number fixed          Mach number fixed         
  
 xtrf =   1.000 (top)        1.000 (bottom)  
 Mach =   0.000     Re =     0.100 e 6     Ncrit =   9.000
  
   alpha    CL        CD       CDp       CM     Top_Xtr  Bot_Xtr
  ------ -------- --------- --------- -------- -------- --------
   0.000  -0.0000   0.01693   0.01018   0.0000   1.0000   1.0000
   0.100   0.0237   0.01690   0.01015  -0.0031   0.9950   1.0000
   0.200   0.0513   0.01685   0.01009  -0.0067   0.9889   1.0000
   0.300   0.0793   0.01679   0.01004  -0.0104   0.9835   1.0000
   0.400   0.1057   0.01669   0.00996  -0.0137   0.9764   1.0000
   0.500   0.1344   0.01658   0.00986  -0.0174   0.9712   1.0000
   0.600   0.1604   0.01645   0.00975  -0.0205   0.9638   1.0000
   0.700   0.1894   0.01628   0.00961  -0.0241   0.9581   1.0000
   0.800   0.2133   0.01611   0.00946  -0.0266   0.9498   1.0000
   0.900   0.2383   0.01591   0.00928  -0.0293   0.9422   1.0000
   1.000   0.2578   0.01574   0.00913  -0.0309   0.9317   1.0000
   1.100   0.2790   0.01553   0.00894  -0.0328   0.9229   1.0000
   1.200   0.2943   0.01536   0.00879  -0.0334   0.9108   1.0000
   1.300   0.3077   0.01520   0.00864  -0.0337   0.8983   1.0000
   1.400   0.3203   0.01505   0.00848  -0.0338   0.8864   1.0000
   1.500   0.3319   0.01489   0.00832  -0.0335   0.8747   1.0000
   1.600   0.3405   0.01479   0.00821  -0.0328   0.8608   1.0000
   1.700   0.3489   0.01470   0.00810  -0.0320   0.8473   1.0000
   1.800   0.3573   0.01460   0.00799  -0.0312   0.8344   1.0000
   1.900   0.3657   0.01451   0.00787  -0.0304   0.8219   1.0000
   2.000   0.3736   0.01444   0.00777  -0.0295   0.8087   1.0000
   2.100   0.3814   0.01440   0.00771  -0.0286   0.7947   1.0000
   2.200   0.3893   0.01436   0.00764  -0.0277   0.7810   1.0000
   2.300   0.3973   0.01433   0.00757  -0.0269   0.7678   1.0000
   2.400   0.4055   0.01430   0.00749  -0.0260   0.7547   1.0000
   2.500   0.4136   0.01429   0.00743  -0.0252   0.7411   1.0000
   2.600   0.4217   0.01430   0.00741  -0.0244   0.7267   1.0000
   2.700   0.4298   0.01431   0.00738  -0.0236   0.7125   1.0000
   2.800   0.4380   0.01433   0.00735  -0.0229   0.6985   1.0000
   2.900   0.4462   0.01436   0.00733  -0.0221   0.6847   1.0000
   3.000   0.4545   0.01440   0.00730  -0.0214   0.6711   1.0000
   3.100   0.4628   0.01444   0.00729  -0.0206   0.6569   1.0000
   3.200   0.4710   0.01450   0.00730  -0.0199   0.6421   1.0000
   3.300   0.4792   0.01456   0.00731  -0.0193   0.6273   1.0000
   3.400   0.4875   0.01463   0.00734  -0.0186   0.6127   1.0000
   3.500   0.4957   0.01471   0.00736  -0.0179   0.5982   1.0000
   3.600   0.5040   0.01479   0.00738  -0.0172   0.5837   1.0000
   3.700   0.5122   0.01488   0.00740  -0.0165   0.5693   1.0000
   3.800   0.5204   0.01498   0.00743  -0.0158   0.5548   1.0000
   3.900   0.5284   0.01508   0.00747  -0.0152   0.5395   1.0000
   4.000   0.5365   0.01519   0.00753  -0.0145   0.5241   1.0000
   4.100   0.5445   0.01531   0.00759  -0.0139   0.5087   1.0000
   4.200   0.5525   0.01543   0.00766  -0.0132   0.4931   1.0000
   4.300   0.5605   0.01556   0.00774  -0.0125   0.4775   1.0000
   4.400   0.5683   0.01570   0.00782  -0.0118   0.4619   1.0000
   4.500   0.5761   0.01585   0.00790  -0.0112   0.4461   1.0000
   4.600   0.5839   0.01600   0.00799  -0.0105   0.4302   1.0000
   4.700   0.5916   0.01617   0.00809  -0.0098   0.4142   1.0000
   4.800   0.5992   0.01635   0.00819  -0.0091   0.3981   1.0000
   4.900   0.6067   0.01654   0.00831  -0.0084   0.3818   1.0000
   5.000   0.6141   0.01674   0.00844  -0.0077   0.3656   1.0000
   5.100   0.6215   0.01696   0.00858  -0.0070   0.3493   1.0000
   5.200   0.6288   0.01719   0.00873  -0.0063   0.3331   1.0000
   5.300   0.6360   0.01744   0.00890  -0.0056   0.3171   1.0000
   5.400   0.6432   0.01771   0.00907  -0.0049   0.3015   1.0000
   5.500   0.6504   0.01799   0.00926  -0.0042   0.2863   1.0000
   5.600   0.6574   0.01829   0.00946  -0.0035   0.2719   1.0000
   5.700   0.6645   0.01861   0.00967  -0.0028   0.2584   1.0000
   5.800   0.6717   0.01891   0.00992  -0.0022   0.2447   1.0000
   5.900   0.6790   0.01924   0.01020  -0.0015   0.2318   1.0000
   6.000   0.6863   0.01959   0.01049  -0.0008   0.2202   1.0000
   6.100   0.6934   0.01998   0.01074  -0.0002   0.2104   1.0000
   6.200   0.7009   0.02030   0.01106   0.0005   0.1999   1.0000
   6.300   0.7084   0.02070   0.01140   0.0011   0.1910   1.0000
   6.400   0.7159   0.02105   0.01168   0.0017   0.1828   1.0000
   6.500   0.7236   0.02145   0.01207   0.0023   0.1750   1.0000
   6.600   0.7312   0.02182   0.01237   0.0029   0.1680   1.0000
   6.700   0.7391   0.02228   0.01280   0.0035   0.1618   1.0000
   6.800   0.7470   0.02264   0.01316   0.0041   0.1554   1.0000
   6.900   0.7551   0.02317   0.01354   0.0045   0.1503   1.0000
   7.000   0.7631   0.02354   0.01403   0.0051   0.1448   1.0000
   7.100   0.7713   0.02393   0.01440   0.0056   0.1400   1.0000
   7.200   0.7799   0.02451   0.01482   0.0059   0.1358   1.0000
   7.300   0.7879   0.02493   0.01538   0.0066   0.1316   1.0000
   7.400   0.7961   0.02534   0.01582   0.0071   0.1274   1.0000
   7.500   0.8047   0.02579   0.01621   0.0075   0.1239   1.0000
   7.600   0.8139   0.02656   0.01685   0.0077   0.1207   1.0000
   7.700   0.8217   0.02698   0.01744   0.0084   0.1175   1.0000
   7.800   0.8298   0.02743   0.01798   0.0089   0.1143   1.0000
   7.900   0.8382   0.02789   0.01843   0.0093   0.1114   1.0000
   8.000   0.8474   0.02850   0.01894   0.0095   0.1089   1.0000
   8.100   0.8562   0.02937   0.01982   0.0098   0.1066   1.0000
   8.200   0.8637   0.02991   0.02054   0.0105   0.1044   1.0000
   8.300   0.8714   0.03048   0.02121   0.0111   0.1020   1.0000
   8.400   0.8793   0.03102   0.02180   0.0116   0.0997   1.0000
   8.500   0.8875   0.03154   0.02232   0.0120   0.0977   1.0000
   8.600   0.8965   0.03224   0.02295   0.0122   0.0958   1.0000
   8.700   0.9050   0.03344   0.02412   0.0124   0.0942   1.0000
   8.800   0.9108   0.03411   0.02504   0.0132   0.0930   1.0000
   8.900   0.9167   0.03488   0.02601   0.0140   0.0916   1.0000
   9.000   0.9227   0.03567   0.02695   0.0147   0.0901   1.0000
   9.100   0.9291   0.03642   0.02782   0.0154   0.0886   1.0000
   9.200   0.9361   0.03709   0.02854   0.0159   0.0870   1.0000
   9.300   0.9437   0.03773   0.02919   0.0162   0.0856   1.0000
   9.400   0.9511   0.03846   0.02993   0.0166   0.0843   1.0000
   9.500   0.9584   0.03950   0.03096   0.0169   0.0833   1.0000
   9.600   0.9646   0.04115   0.03263   0.0171   0.0824   1.0000
   9.700   0.9670   0.04220   0.03390   0.0182   0.0819   1.0000
   9.800   0.9688   0.04329   0.03523   0.0192   0.0814   1.0000
   9.900   0.9700   0.04447   0.03663   0.0203   0.0808   1.0000
  10.000   0.9706   0.04573   0.03811   0.0213   0.0802   1.0000
