  
       XFOIL         Version 6.99
  
 Calculated polar for:                                                 
  
 1 1 Reynolds number fixed          Mach number fixed         
  
 xtrf =   1.000 (top)        1.000 (bottom)  
 Mach =   0.000     Re =     0.050 e 6     Ncrit =   9.000
  
   alpha    CL        CD       CDp       CM     Top_Xtr  Bot_Xtr
  ------ -------- --------- --------- -------- -------- --------
   0.000  -0.0000   0.02078   0.01099   0.0000   1.0000   1.0000
   0.100  -0.0053   0.02079   0.01100   0.0020   1.0000   1.0000
   0.200  -0.0104   0.02081   0.01102   0.0039   1.0000   1.0000
   0.300  -0.0151   0.02085   0.01105   0.0058   1.0000   1.0000
   0.400  -0.0191   0.02092   0.01110   0.0075   1.0000   1.0000
   0.500  -0.0225   0.02100   0.01117   0.0092   1.0000   1.0000
   0.600  -0.0250   0.02109   0.01126   0.0107   1.0000   1.0000
   0.700  -0.0269   0.02121   0.01136   0.0121   1.0000   1.0000
   0.800  -0.0280   0.02135   0.01148   0.0133   1.0000   1.0000
   0.900  -0.0286   0.02150   0.01161   0.0145   1.0000   1.0000
   1.000  -0.0285   0.02168   0.01177   0.0155   1.0000   1.0000
   1.100  -0.0277   0.02187   0.01195   0.0164   1.0000   1.0000
   1.200  -0.0264   0.02208   0.01215   0.0171   1.0000   1.0000
   1.300  -0.0245   0.02231   0.01236   0.0178   1.0000   1.0000
   1.400  -0.0113   0.02264   0.01270   0.0163   0.9966   1.0000
   1.500   0.0223   0.02312   0.01322   0.0113   0.9864   1.0000
   1.600   0.0547   0.02353   0.01368   0.0066   0.9756   1.0000
   1.700   0.0867   0.02390   0.01411   0.0021   0.9647   1.0000
   1.800   0.1214   0.02422   0.01450  -0.0027   0.9540   1.0000
   1.900   0.1537   0.02446   0.01480  -0.0070   0.9422   1.0000
   2.000   0.1828   0.02463   0.01505  -0.0106   0.9296   1.0000
   2.100   0.2153   0.02475   0.01526  -0.0147   0.9175   1.0000
   2.200   0.2587   0.02473   0.01536  -0.0204   0.9061   1.0000
   2.300   0.2952   0.02463   0.01538  -0.0248   0.8932   1.0000
   2.400   0.3223   0.02454   0.01538  -0.0273   0.8794   1.0000
   2.500   0.3497   0.02437   0.01531  -0.0297   0.8657   1.0000
   2.600   0.3768   0.02413   0.01516  -0.0319   0.8522   1.0000
   2.700   0.4031   0.02382   0.01492  -0.0336   0.8390   1.0000
   2.800   0.4228   0.02358   0.01475  -0.0342   0.8251   1.0000
   2.900   0.4361   0.02347   0.01468  -0.0338   0.8103   1.0000
   3.000   0.4487   0.02336   0.01459  -0.0333   0.7956   1.0000
   3.100   0.4606   0.02324   0.01450  -0.0325   0.7811   1.0000
   3.200   0.4721   0.02312   0.01439  -0.0317   0.7668   1.0000
   3.300   0.4831   0.02299   0.01427  -0.0307   0.7526   1.0000
   3.400   0.4938   0.02286   0.01412  -0.0295   0.7385   1.0000
   3.500   0.5033   0.02277   0.01404  -0.0283   0.7239   1.0000
   3.600   0.5112   0.02277   0.01402  -0.0270   0.7083   1.0000
   3.700   0.5192   0.02278   0.01402  -0.0257   0.6927   1.0000
   3.800   0.5271   0.02280   0.01401  -0.0244   0.6771   1.0000
   3.900   0.5350   0.02282   0.01400  -0.0231   0.6612   1.0000
   4.000   0.5428   0.02286   0.01401  -0.0218   0.6453   1.0000
   4.100   0.5507   0.02292   0.01402  -0.0205   0.6291   1.0000
   4.200   0.5584   0.02298   0.01404  -0.0192   0.6127   1.0000
   4.300   0.5661   0.02307   0.01408  -0.0180   0.5961   1.0000
   4.400   0.5738   0.02317   0.01413  -0.0167   0.5792   1.0000
   4.500   0.5814   0.02329   0.01418  -0.0155   0.5621   1.0000
   4.600   0.5890   0.02343   0.01424  -0.0143   0.5448   1.0000
   4.700   0.5965   0.02358   0.01433  -0.0132   0.5274   1.0000
   4.800   0.6040   0.02375   0.01441  -0.0120   0.5099   1.0000
   4.900   0.6115   0.02394   0.01451  -0.0109   0.4922   1.0000
   5.000   0.6189   0.02416   0.01463  -0.0098   0.4746   1.0000
   5.100   0.6264   0.02439   0.01476  -0.0087   0.4570   1.0000
   5.200   0.6338   0.02465   0.01493  -0.0077   0.4396   1.0000
   5.300   0.6412   0.02494   0.01510  -0.0067   0.4223   1.0000
   5.400   0.6483   0.02525   0.01532  -0.0057   0.4051   1.0000
   5.500   0.6555   0.02560   0.01558  -0.0048   0.3882   1.0000
   5.600   0.6628   0.02597   0.01584  -0.0038   0.3721   1.0000
   5.700   0.6701   0.02634   0.01613  -0.0030   0.3563   1.0000
   5.800   0.6771   0.02676   0.01650  -0.0021   0.3411   1.0000
   5.900   0.6842   0.02722   0.01693  -0.0012   0.3266   1.0000
   6.000   0.6913   0.02770   0.01737  -0.0004   0.3129   1.0000
   6.100   0.6987   0.02819   0.01783   0.0003   0.3003   1.0000
   6.200   0.7071   0.02868   0.01817   0.0010   0.2891   1.0000
   6.300   0.7145   0.02919   0.01868   0.0017   0.2777   1.0000
   6.400   0.7216   0.02979   0.01930   0.0025   0.2672   1.0000
   6.500   0.7309   0.03031   0.01963   0.0030   0.2582   1.0000
   6.600   0.7373   0.03096   0.02044   0.0037   0.2488   1.0000
   6.700   0.7460   0.03155   0.02090   0.0043   0.2409   1.0000
   6.800   0.7528   0.03221   0.02168   0.0050   0.2327   1.0000
   6.900   0.7622   0.03285   0.02215   0.0054   0.2261   1.0000
   7.000   0.7681   0.03363   0.02316   0.0062   0.2193   1.0000
   7.100   0.7773   0.03420   0.02362   0.0066   0.2129   1.0000
   7.200   0.7837   0.03509   0.02464   0.0073   0.2074   1.0000
   7.300   0.7905   0.03589   0.02555   0.0080   0.2020   1.0000
   7.400   0.8001   0.03653   0.02605   0.0083   0.1970   1.0000
   7.500   0.8057   0.03754   0.02722   0.0090   0.1927   1.0000
   7.600   0.8110   0.03849   0.02837   0.0098   0.1884   1.0000
   7.700   0.8191   0.03922   0.02908   0.0103   0.1841   1.0000
   7.800   0.8296   0.04008   0.02976   0.0104   0.1803   1.0000
   7.900   0.8318   0.04131   0.03132   0.0115   0.1777   1.0000
   8.000   0.8349   0.04251   0.03277   0.0123   0.1748   1.0000
   8.100   0.8396   0.04356   0.03395   0.0130   0.1716   1.0000
   8.200   0.8478   0.04433   0.03470   0.0135   0.1683   1.0000
   8.300   0.8589   0.04525   0.03543   0.0135   0.1651   1.0000
   8.400   0.8596   0.04672   0.03716   0.0145   0.1638   1.0000
   8.500   0.8596   0.04826   0.03898   0.0154   0.1625   1.0000
   8.600   0.8593   0.04984   0.04079   0.0163   0.1612   1.0000
   8.700   0.8588   0.05144   0.04259   0.0171   0.1599   1.0000
   8.800   0.8580   0.05304   0.04437   0.0179   0.1587   1.0000
   8.900   0.8572   0.05464   0.04612   0.0186   0.1574   1.0000
   9.000   0.8564   0.05623   0.04784   0.0193   0.1563   1.0000
   9.100   0.8554   0.05785   0.04957   0.0199   0.1553   1.0000
   9.200   0.8533   0.05960   0.05143   0.0204   0.1547   1.0000
   9.300   0.8476   0.06167   0.05365   0.0209   0.1547   1.0000
   9.400   0.8373   0.06414   0.05627   0.0213   0.1555   1.0000
   9.500   0.8222   0.06698   0.05925   0.0215   0.1569   1.0000
   9.600   0.8075   0.06980   0.06217   0.0215   0.1583   1.0000
   9.700   0.7939   0.07256   0.06499   0.0212   0.1596   1.0000
   9.800   0.7812   0.07511   0.06756   0.0210   0.1608   1.0000
   9.900   0.7704   0.07769   0.07016   0.0206   0.1618   1.0000
  10.000   0.7620   0.08030   0.07277   0.0199   0.1627   1.0000
