  
       XFOIL         Version 6.99
  
 Calculated polar for:                                                 
  
 1 1 Reynolds number fixed          Mach number fixed         
  
 xtrf =   1.000 (top)        1.000 (bottom)  
 Mach =   0.000     Re =     0.010 e 6     Ncrit =   9.000
  
   alpha    CL        CD       CDp       CM     Top_Xtr  Bot_Xtr
  ------ -------- --------- --------- -------- -------- --------
   0.000  -0.0000   0.03947   0.01623  -0.0000   1.0000   1.0000
   0.100   0.0029   0.03948   0.01624   0.0009   1.0000   1.0000
   0.200   0.0057   0.03949   0.01625   0.0018   1.0000   1.0000
   0.300   0.0086   0.03952   0.01628   0.0027   1.0000   1.0000
   0.400   0.0114   0.03956   0.01631   0.0036   1.0000   1.0000
   0.500   0.0143   0.03960   0.01636   0.0044   1.0000   1.0000
   0.600   0.0171   0.03966   0.01642   0.0053   1.0000   1.0000
   0.700   0.0199   0.03973   0.01649   0.0062   1.0000   1.0000
   0.800   0.0228   0.03981   0.01657   0.0071   1.0000   1.0000
   0.900   0.0256   0.03990   0.01665   0.0079   1.0000   1.0000
   1.000   0.0285   0.04000   0.01675   0.0087   1.0000   1.0000
   1.100   0.0314   0.04011   0.01687   0.0096   1.0000   1.0000
   1.200   0.0344   0.04024   0.01699   0.0104   1.0000   1.0000
   1.300   0.0374   0.04037   0.01713   0.0111   1.0000   1.0000
   1.400   0.0405   0.04052   0.01727   0.0119   1.0000   1.0000
   1.500   0.0436   0.04068   0.01744   0.0126   1.0000   1.0000
   1.600   0.0468   0.04085   0.01761   0.0133   1.0000   1.0000
   1.700   0.0500   0.04103   0.01780   0.0140   1.0000   1.0000
   1.800   0.0533   0.04122   0.01801   0.0146   1.0000   1.0000
   1.900   0.0566   0.04143   0.01822   0.0152   1.0000   1.0000
   2.000   0.0600   0.04165   0.01845   0.0158   1.0000   1.0000
   2.100   0.0634   0.04188   0.01869   0.0164   1.0000   1.0000
   2.200   0.0669   0.04213   0.01895   0.0169   1.0000   1.0000
   2.300   0.0703   0.04239   0.01922   0.0174   1.0000   1.0000
   2.400   0.0739   0.04266   0.01951   0.0178   1.0000   1.0000
   2.500   0.0774   0.04295   0.01981   0.0183   1.0000   1.0000
   2.600   0.0810   0.04325   0.02013   0.0187   1.0000   1.0000
   2.700   0.0846   0.04357   0.02047   0.0190   1.0000   1.0000
   2.800   0.0882   0.04390   0.02082   0.0194   1.0000   1.0000
   2.900   0.0918   0.04425   0.02119   0.0197   1.0000   1.0000
   3.000   0.0955   0.04461   0.02159   0.0199   1.0000   1.0000
   3.100   0.0991   0.04499   0.02199   0.0202   1.0000   1.0000
   3.200   0.1027   0.04538   0.02241   0.0204   1.0000   1.0000
   3.300   0.1064   0.04579   0.02285   0.0206   1.0000   1.0000
   3.400   0.1100   0.04622   0.02330   0.0207   1.0000   1.0000
   3.500   0.1136   0.04666   0.02377   0.0208   1.0000   1.0000
   3.600   0.1172   0.04712   0.02426   0.0209   1.0000   1.0000
   3.700   0.1208   0.04759   0.02477   0.0210   1.0000   1.0000
   3.800   0.1244   0.04808   0.02530   0.0210   1.0000   1.0000
   3.900   0.1279   0.04859   0.02585   0.0210   1.0000   1.0000
   4.000   0.1315   0.04912   0.02641   0.0210   1.0000   1.0000
   4.100   0.1350   0.04967   0.02700   0.0209   1.0000   1.0000
   4.200   0.1385   0.05023   0.02760   0.0209   1.0000   1.0000
   4.300   0.1420   0.05081   0.02822   0.0207   1.0000   1.0000
   4.400   0.1454   0.05141   0.02888   0.0206   1.0000   1.0000
   4.500   0.1488   0.05202   0.02954   0.0205   1.0000   1.0000
   4.600   0.1522   0.05266   0.03021   0.0203   1.0000   1.0000
   4.700   0.1556   0.05331   0.03091   0.0201   1.0000   1.0000
   4.800   0.1590   0.05398   0.03163   0.0198   1.0000   1.0000
   4.900   0.1623   0.05467   0.03236   0.0196   1.0000   1.0000
   5.000   0.1656   0.05538   0.03312   0.0193   1.0000   1.0000
   5.100   0.1688   0.05611   0.03389   0.0190   1.0000   1.0000
   5.200   0.1721   0.05685   0.03469   0.0187   1.0000   1.0000
   5.300   0.1753   0.05762   0.03550   0.0183   1.0000   1.0000
   5.400   0.1785   0.05840   0.03633   0.0180   1.0000   1.0000
   5.500   0.1816   0.05920   0.03718   0.0176   1.0000   1.0000
   5.600   0.1848   0.06002   0.03805   0.0172   1.0000   1.0000
   5.700   0.1879   0.06085   0.03893   0.0168   1.0000   1.0000
   5.800   0.1910   0.06170   0.03983   0.0163   1.0000   1.0000
   5.900   0.1941   0.06257   0.04078   0.0159   1.0000   1.0000
   6.000   0.1971   0.06346   0.04172   0.0154   1.0000   1.0000
   6.100   0.2001   0.06437   0.04267   0.0150   1.0000   1.0000
   6.200   0.2031   0.06529   0.04364   0.0145   1.0000   1.0000
   6.300   0.2061   0.06623   0.04463   0.0140   1.0000   1.0000
   6.400   0.2091   0.06718   0.04564   0.0135   1.0000   1.0000
   6.500   0.2120   0.06815   0.04666   0.0130   1.0000   1.0000
   6.600   0.2150   0.06914   0.04769   0.0124   1.0000   1.0000
   6.700   0.2179   0.07014   0.04874   0.0119   1.0000   1.0000
   6.800   0.2208   0.07115   0.04981   0.0114   1.0000   1.0000
   6.900   0.2237   0.07218   0.05089   0.0108   1.0000   1.0000
   7.000   0.2266   0.07323   0.05198   0.0102   1.0000   1.0000
   7.100   0.2296   0.07429   0.05309   0.0097   1.0000   1.0000
   7.200   0.2325   0.07536   0.05421   0.0091   1.0000   1.0000
   7.300   0.2354   0.07645   0.05535   0.0085   1.0000   1.0000
   7.400   0.2383   0.07755   0.05650   0.0079   1.0000   1.0000
   7.500   0.2412   0.07867   0.05766   0.0074   1.0000   1.0000
   7.600   0.2441   0.07979   0.05883   0.0068   1.0000   1.0000
   7.700   0.2470   0.08093   0.06004   0.0062   1.0000   1.0000
   7.800   0.2499   0.08208   0.06124   0.0056   1.0000   1.0000
   7.900   0.2529   0.08324   0.06244   0.0050   1.0000   1.0000
   8.000   0.2558   0.08441   0.06365   0.0044   1.0000   1.0000
   8.100   0.2588   0.08559   0.06488   0.0038   1.0000   1.0000
   8.200   0.2617   0.08678   0.06611   0.0032   1.0000   1.0000
   8.300   0.2647   0.08798   0.06735   0.0026   1.0000   1.0000
   8.400   0.2677   0.08918   0.06860   0.0020   1.0000   1.0000
   8.500   0.2706   0.09040   0.06986   0.0014   1.0000   1.0000
   8.600   0.2736   0.09162   0.07112   0.0008   1.0000   1.0000
   8.700   0.2767   0.09285   0.07239   0.0002   1.0000   1.0000
   8.800   0.2797   0.09409   0.07367  -0.0004   1.0000   1.0000
   8.900   0.2827   0.09534   0.07496  -0.0010   1.0000   1.0000
   9.000   0.2858   0.09659   0.07625  -0.0016   1.0000   1.0000
   9.100   0.2889   0.09784   0.07754  -0.0022   1.0000   1.0000
   9.200   0.2920   0.09911   0.07884  -0.0028   1.0000   1.0000
   9.300   0.2951   0.10038   0.08015  -0.0034   1.0000   1.0000
   9.400   0.2982   0.10165   0.08146  -0.0040   1.0000   1.0000
   9.500   0.3014   0.10293   0.08277  -0.0047   1.0000   1.0000
   9.600   0.3046   0.10421   0.08411  -0.0053   1.0000   1.0000
   9.700   0.3078   0.10549   0.08543  -0.0059   1.0000   1.0000
   9.800   0.3110   0.10678   0.08676  -0.0065   1.0000   1.0000
   9.900   0.3142   0.10808   0.08808  -0.0071   1.0000   1.0000
  10.000   0.3175   0.10937   0.08941  -0.0077   1.0000   1.0000
