  
       XFOIL         Version 6.99
  
 Calculated polar for: E168  (12.45%)                                  
  
 1 1 Reynolds number fixed          Mach number fixed         
  
 xtrf =   1.000 (top)        1.000 (bottom)  
 Mach =   0.000     Re =     0.100 e 6     Ncrit =   9.000
  
   alpha    CL        CD       CDp       CM     Top_Xtr  Bot_Xtr
  ------ -------- --------- --------- -------- -------- --------
 -10.000  -0.9854   0.03444   0.02640  -0.0198   1.0000   0.0733
  -9.750  -0.9692   0.03264   0.02453  -0.0186   1.0000   0.0790
  -9.500  -0.9534   0.03067   0.02249  -0.0174   1.0000   0.0864
  -9.250  -0.9376   0.02906   0.02069  -0.0158   1.0000   0.0957
  -9.000  -0.9212   0.02733   0.01906  -0.0145   1.0000   0.1076
  -8.750  -0.9062   0.02576   0.01757  -0.0130   1.0000   0.1235
  -8.500  -0.8912   0.02446   0.01643  -0.0114   1.0000   0.1429
  -8.250  -0.8755   0.02334   0.01534  -0.0099   1.0000   0.1667
  -8.000  -0.8589   0.02252   0.01455  -0.0084   1.0000   0.1932
  -7.750  -0.8413   0.02194   0.01398  -0.0069   1.0000   0.2194
  -7.500  -0.8220   0.02147   0.01361  -0.0056   1.0000   0.2430
  -7.250  -0.8021   0.02104   0.01312  -0.0043   1.0000   0.2660
  -7.000  -0.7807   0.02069   0.01280  -0.0031   1.0000   0.2861
  -6.750  -0.7593   0.02032   0.01237  -0.0019   1.0000   0.3058
  -6.500  -0.7375   0.01997   0.01197  -0.0007   1.0000   0.3242
  -6.250  -0.7147   0.01964   0.01168   0.0003   1.0000   0.3410
  -6.000  -0.6919   0.01932   0.01137   0.0014   1.0000   0.3575
  -5.750  -0.6692   0.01898   0.01103   0.0025   1.0000   0.3737
  -5.500  -0.6464   0.01865   0.01069   0.0035   1.0000   0.3894
  -5.250  -0.6236   0.01830   0.01035   0.0046   1.0000   0.4048
  -5.000  -0.6009   0.01796   0.01001   0.0057   1.0000   0.4200
  -4.750  -0.5783   0.01762   0.00967   0.0067   1.0000   0.4350
  -4.500  -0.5558   0.01728   0.00935   0.0078   1.0000   0.4499
  -4.250  -0.5335   0.01696   0.00905   0.0089   1.0000   0.4648
  -4.000  -0.5116   0.01665   0.00877   0.0101   1.0000   0.4796
  -3.750  -0.4904   0.01636   0.00850   0.0113   1.0000   0.4945
  -3.500  -0.4701   0.01609   0.00828   0.0126   1.0000   0.5094
  -3.250  -0.4513   0.01586   0.00811   0.0140   1.0000   0.5244
  -3.000  -0.4344   0.01569   0.00800   0.0156   1.0000   0.5392
  -2.750  -0.4195   0.01558   0.00793   0.0174   1.0000   0.5540
  -2.500  -0.4045   0.01556   0.00797   0.0188   0.9994   0.5693
  -2.250  -0.3471   0.01556   0.00800   0.0125   0.9818   0.5933
  -2.000  -0.2947   0.01544   0.00799   0.0078   0.9625   0.6144
  -1.750  -0.2411   0.01527   0.00787   0.0029   0.9448   0.6383
  -1.500  -0.1902   0.01506   0.00777  -0.0010   0.9272   0.6592
  -1.250  -0.1468   0.01486   0.00763  -0.0034   0.9054   0.6813
  -1.000  -0.1080   0.01470   0.00751  -0.0046   0.8826   0.7020
  -0.750  -0.0770   0.01460   0.00745  -0.0042   0.8574   0.7221
  -0.500  -0.0492   0.01454   0.00737  -0.0033   0.8335   0.7440
  -0.250  -0.0242   0.01452   0.00737  -0.0017   0.8089   0.7640
   0.000   0.0000   0.01451   0.00736  -0.0000   0.7864   0.7863
   0.250   0.0243   0.01452   0.00737   0.0017   0.7641   0.8089
   0.500   0.0493   0.01454   0.00737   0.0032   0.7441   0.8335
   0.750   0.0770   0.01460   0.00745   0.0042   0.7222   0.8573
   1.000   0.1081   0.01470   0.00751   0.0046   0.7020   0.8825
   1.250   0.1468   0.01486   0.00763   0.0034   0.6813   0.9054
   1.500   0.1902   0.01506   0.00777   0.0010   0.6592   0.9272
   1.750   0.2411   0.01527   0.00787  -0.0029   0.6383   0.9448
   2.000   0.2947   0.01544   0.00799  -0.0078   0.6144   0.9625
   2.250   0.3471   0.01556   0.00800  -0.0126   0.5933   0.9818
   2.500   0.4046   0.01556   0.00797  -0.0188   0.5693   0.9995
   2.750   0.4195   0.01558   0.00793  -0.0174   0.5540   1.0000
   3.000   0.4344   0.01569   0.00799  -0.0156   0.5392   1.0000
   3.250   0.4513   0.01586   0.00811  -0.0140   0.5243   1.0000
   3.500   0.4702   0.01609   0.00828  -0.0126   0.5094   1.0000
   3.750   0.4905   0.01636   0.00850  -0.0113   0.4945   1.0000
   4.000   0.5117   0.01665   0.00877  -0.0101   0.4796   1.0000
   4.250   0.5335   0.01696   0.00905  -0.0089   0.4648   1.0000
   4.500   0.5558   0.01729   0.00935  -0.0078   0.4499   1.0000
   4.750   0.5783   0.01762   0.00966  -0.0068   0.4350   1.0000
   5.000   0.6009   0.01796   0.01001  -0.0057   0.4200   1.0000
   5.250   0.6236   0.01830   0.01035  -0.0046   0.4048   1.0000
   5.500   0.6464   0.01865   0.01069  -0.0035   0.3894   1.0000
   5.750   0.6692   0.01898   0.01103  -0.0025   0.3736   1.0000
   6.000   0.6920   0.01931   0.01137  -0.0014   0.3575   1.0000
   6.250   0.7147   0.01964   0.01168  -0.0003   0.3410   1.0000
   6.500   0.7375   0.01997   0.01197   0.0007   0.3242   1.0000
   6.750   0.7594   0.02033   0.01237   0.0019   0.3058   1.0000
   7.000   0.7807   0.02069   0.01280   0.0031   0.2861   1.0000
   7.250   0.8022   0.02104   0.01312   0.0042   0.2660   1.0000
   7.500   0.8220   0.02147   0.01361   0.0056   0.2430   1.0000
   7.750   0.8413   0.02193   0.01398   0.0069   0.2193   1.0000
   8.000   0.8590   0.02253   0.01455   0.0084   0.1931   1.0000
   8.250   0.8755   0.02334   0.01534   0.0099   0.1666   1.0000
   8.500   0.8912   0.02446   0.01643   0.0114   0.1428   1.0000
   8.750   0.9063   0.02576   0.01758   0.0130   0.1235   1.0000
   9.000   0.9213   0.02733   0.01905   0.0145   0.1077   1.0000
   9.250   0.9377   0.02906   0.02069   0.0158   0.0957   1.0000
   9.500   0.9534   0.03066   0.02249   0.0173   0.0864   1.0000
   9.750   0.9694   0.03265   0.02453   0.0186   0.0791   1.0000
  10.000   0.9856   0.03444   0.02642   0.0198   0.0734   1.0000
