  
       XFOIL         Version 6.99
  
 Calculated polar for: E168  (12.45%)                                  
  
 1 1 Reynolds number fixed          Mach number fixed         
  
 xtrf =   1.000 (top)        1.000 (bottom)  
 Mach =   0.000     Re =     0.050 e 6     Ncrit =   9.000
  
   alpha    CL        CD       CDp       CM     Top_Xtr  Bot_Xtr
  ------ -------- --------- --------- -------- -------- --------
 -10.000  -0.9418   0.05321   0.04548  -0.0213   1.0000   0.1372
  -9.750  -0.9301   0.05081   0.04304  -0.0200   1.0000   0.1464
  -9.500  -0.9247   0.04758   0.03965  -0.0186   1.0000   0.1545
  -9.250  -0.9228   0.04438   0.03609  -0.0169   1.0000   0.1651
  -9.000  -0.9081   0.04245   0.03416  -0.0154   1.0000   0.1803
  -8.750  -0.8903   0.04130   0.03307  -0.0137   1.0000   0.1999
  -8.500  -0.8816   0.03921   0.03072  -0.0118   1.0000   0.2200
  -8.250  -0.8579   0.03894   0.03072  -0.0100   1.0000   0.2449
  -8.000  -0.8386   0.03828   0.03012  -0.0080   1.0000   0.2698
  -7.750  -0.8237   0.03712   0.02883  -0.0061   1.0000   0.2946
  -7.500  -0.7987   0.03721   0.02904  -0.0040   1.0000   0.3195
  -7.250  -0.7766   0.03690   0.02872  -0.0020   1.0000   0.3426
  -7.000  -0.7577   0.03620   0.02792  -0.0002   1.0000   0.3654
  -6.750  -0.7350   0.03584   0.02755   0.0017   1.0000   0.3859
  -6.500  -0.7121   0.03550   0.02720   0.0037   1.0000   0.4059
  -6.250  -0.6953   0.03434   0.02584   0.0052   1.0000   0.4258
  -6.000  -0.6745   0.03360   0.02505   0.0069   1.0000   0.4438
  -5.750  -0.6517   0.03312   0.02455   0.0087   1.0000   0.4611
  -5.500  -0.6306   0.03240   0.02378   0.0103   1.0000   0.4780
  -5.250  -0.6103   0.03159   0.02291   0.0119   1.0000   0.4950
  -5.000  -0.5906   0.03072   0.02194   0.0134   1.0000   0.5118
  -4.750  -0.5714   0.02982   0.02097   0.0149   1.0000   0.5286
  -4.500  -0.5528   0.02890   0.01998   0.0164   1.0000   0.5458
  -4.250  -0.5343   0.02800   0.01902   0.0178   1.0000   0.5628
  -4.000  -0.5143   0.02734   0.01835   0.0195   1.0000   0.5790
  -3.750  -0.4949   0.02668   0.01769   0.0213   1.0000   0.5952
  -3.500  -0.4760   0.02607   0.01710   0.0231   1.0000   0.6120
  -3.250  -0.4580   0.02545   0.01650   0.0249   1.0000   0.6290
  -3.000  -0.4412   0.02484   0.01592   0.0269   1.0000   0.6466
  -2.750  -0.4263   0.02424   0.01532   0.0289   1.0000   0.6652
  -2.500  -0.4134   0.02365   0.01474   0.0310   1.0000   0.6842
  -2.250  -0.4005   0.02326   0.01442   0.0335   1.0000   0.7021
  -2.000  -0.3892   0.02290   0.01411   0.0359   1.0000   0.7212
  -1.750  -0.3792   0.02254   0.01375   0.0381   1.0000   0.7426
  -1.500  -0.3674   0.02232   0.01359   0.0401   1.0000   0.7638
  -1.250  -0.3572   0.02213   0.01343   0.0421   1.0000   0.7879
  -1.000  -0.3454   0.02203   0.01340   0.0440   1.0000   0.8128
  -0.750  -0.3319   0.02198   0.01340   0.0454   1.0000   0.8413
  -0.500  -0.2561   0.02278   0.01422   0.0362   0.9781   0.8774
  -0.250  -0.1457   0.02373   0.01515   0.0212   0.9559   0.9098
   0.000  -0.0001   0.02425   0.01563   0.0000   0.9330   0.9329
   0.250   0.1456   0.02373   0.01514  -0.0211   0.9097   0.9559
   0.500   0.2562   0.02277   0.01422  -0.0362   0.8774   0.9782
   0.750   0.3319   0.02198   0.01340  -0.0454   0.8414   1.0000
   1.000   0.3454   0.02203   0.01340  -0.0440   0.8128   1.0000
   1.250   0.3572   0.02213   0.01343  -0.0421   0.7879   1.0000
   1.500   0.3673   0.02232   0.01359  -0.0401   0.7638   1.0000
   1.750   0.3791   0.02254   0.01375  -0.0381   0.7425   1.0000
   2.000   0.3892   0.02290   0.01411  -0.0359   0.7211   1.0000
   2.250   0.4005   0.02326   0.01442  -0.0335   0.7021   1.0000
   2.500   0.4134   0.02365   0.01474  -0.0310   0.6842   1.0000
   2.750   0.4263   0.02424   0.01532  -0.0289   0.6651   1.0000
   3.000   0.4412   0.02485   0.01592  -0.0269   0.6466   1.0000
   3.250   0.4580   0.02545   0.01650  -0.0250   0.6290   1.0000
   3.500   0.4760   0.02607   0.01710  -0.0231   0.6120   1.0000
   3.750   0.4949   0.02669   0.01770  -0.0213   0.5953   1.0000
   4.000   0.5143   0.02734   0.01835  -0.0195   0.5790   1.0000
   4.250   0.5343   0.02800   0.01902  -0.0178   0.5628   1.0000
   4.500   0.5528   0.02890   0.01998  -0.0164   0.5458   1.0000
   4.750   0.5714   0.02982   0.02097  -0.0149   0.5286   1.0000
   5.000   0.5907   0.03073   0.02195  -0.0134   0.5119   1.0000
   5.250   0.6103   0.03159   0.02290  -0.0119   0.4949   1.0000
   5.500   0.6306   0.03240   0.02378  -0.0103   0.4780   1.0000
   5.750   0.6517   0.03312   0.02454  -0.0087   0.4611   1.0000
   6.000   0.6745   0.03360   0.02505  -0.0069   0.4438   1.0000
   6.250   0.6953   0.03434   0.02585  -0.0052   0.4258   1.0000
   6.500   0.7121   0.03550   0.02720  -0.0037   0.4059   1.0000
   6.750   0.7350   0.03584   0.02755  -0.0017   0.3859   1.0000
   7.000   0.7577   0.03620   0.02792   0.0002   0.3654   1.0000
   7.250   0.7766   0.03691   0.02873   0.0020   0.3426   1.0000
   7.500   0.7987   0.03721   0.02904   0.0040   0.3194   1.0000
   7.750   0.8239   0.03711   0.02881   0.0060   0.2945   1.0000
   8.000   0.8387   0.03829   0.03013   0.0080   0.2698   1.0000
   8.250   0.8579   0.03894   0.03073   0.0100   0.2449   1.0000
   8.500   0.8815   0.03922   0.03074   0.0118   0.2200   1.0000
   8.750   0.8904   0.04129   0.03307   0.0137   0.1999   1.0000
   9.000   0.9077   0.04252   0.03425   0.0154   0.1805   1.0000
   9.250   0.9230   0.04436   0.03607   0.0169   0.1650   1.0000
   9.500   0.9251   0.04754   0.03960   0.0186   0.1544   1.0000
   9.750   0.9302   0.05082   0.04305   0.0200   0.1464   1.0000
  10.000   0.9182   0.05532   0.04796   0.0213   0.1426   1.0000
